LAMMPS (28 Mar 2023 - Development)
variable        NSTEPS          equal 1000
variable        THERMO_FREQ     equal 10
variable        DUMP_FREQ       equal 10
variable        restart         equal 0
variable        TEMP            equal 300.000000
variable        PRESS           equal 1.000000
variable        TAU_T           equal 0.100000
variable        TAU_P           equal 0.500000

units           metal
boundary        p p p
atom_style      atomic

neighbor        1.0 bin
neigh_modify    delay 10

box              tilt large

The 'box' command has been removed and will be ignored

read_data lmp.config
Reading data file ...
  triclinic box = (0 0 0) to (10.10484 10.2807 10.275205) with tilt (0 -1.7274453 0)
  reading atoms ...
  96 atoms
change_box       all triclinic
Changing box ...
  triclinic box = (0 0 0) to (10.10484 10.2807 10.275205) with tilt (0 -1.7274453 0)

mass   1    178.49
mass   2    15.999
pair_style   pwmatmlff
pair_coeff   * * 5 1 forcefield.ff 72 8

thermo_style    custom step temp pe ke etotal press vol lx ly lz xy xz yz
thermo          10
dump            1 all custom 10 trajs.dump id type x y z fx fy fz
restart         10000 lmps.restart

velocity        all create 300 35826
fix             1 all npt temp 300 300 0.1 iso 1 1 0.5

timestep        0.002000
run             1000 upto
Generated 0 of 1 mixed pair_coeff terms from geometric mixing rule
Step          Temp          PotEng         KinEng         TotEng         Press          Volume           Lx             Ly             Lz             Xy             Xz             Yz
0   300           -975.12991      3.6839141     -971.446        101682.48      1067.4379      10.10484       10.2807        10.275205      0             -1.7274453      0
Averages over the last 51 of 101 rows, steps 500 to 1000:
Temp PotEng KinEng TotEng Press Volume Lx Ly Lz Xy Xz Yz
308.001 -972.825 3.78216 -969.043 -177.56 1124.3 10.2811 10.4601 10.4545 0 -1.75758 0
Loop time of 16.2939 on 4 procs for 1000 steps with 96 atoms
